2
Properties=species:S:1:pos:R:3:momenta:R:3:forces:R:3:energies:R:1 energy=0.44034357303561467 pbc="F F F"
N        0.00000000       0.00000000       0.00000000     114.88971559      77.74311135     130.55799933       0.00000000       0.00000000       3.25179997       0.22017179
N        0.00000000       0.00000000       1.10000000      54.95446258      85.46165215     115.62756432       0.00000000       0.00000000      -3.25179997       0.22017179
2
Properties=species:S:1:pos:R:3:momenta:R:3:forces:R:3:energies:R:1 energy=0.3797337310795117 pbc="F F F"
N        0.80568759       0.54518944       0.91668461     114.83787455      77.74978751     130.84019073      -1.05553588       0.13593330       2.49390240       0.18986687
N        0.38537939       0.59931729       1.90974193      55.00630361      85.45497599     115.34537291       1.05553588      -0.13593330      -2.49390240       0.18986687
